/*--------------------------------*- C++ -*----------------------------------*\
| =========                 |                                                 |
| \\      /  F ield         | OpenFOAM: The Open Source CFD Toolbox           |
|  \\    /   O peration     | Version:  v1712                                 |
|   \\  /    A nd           | Web:      www.OpenFOAM.com                      |
|    \\/     M anipulation  |                                                 |
\*---------------------------------------------------------------------------*/
FoamFile
{
    version     2.0;
    format      ascii;
    class       featureEdgeMesh;
    location    "constant/triSurface";
    object      McCormicksCylinderSI.eMesh;
}
// * * * * * * * * * * * * * * * * * * * * * * * * * * * * * * * * * * * * * //


// points:

2812
(
(0.099996 -0.000893756 -0.65)
(0.099991 -0.00134061 -0.65)
(0.099984 -0.00178744 -0.65)
(0.099975 -0.00223423 -0.65)
(0.0999641 -0.00268098 -0.65)
(0.0999511 -0.00312768 -0.65)
(0.0999361 -0.00357431 -0.65)
(0.0999191 -0.00402087 -0.65)
(0.0999002 -0.00446735 -0.65)
(0.0998792 -0.00491374 -0.65)
(0.0998562 -0.00536003 -0.65)
(0.0998313 -0.00580622 -0.65)
(0.0998044 -0.00625229 -0.65)
(0.0997754 -0.00669824 -0.65)
(0.0997445 -0.00714405 -0.65)
(0.0997116 -0.00758972 -0.65)
(0.0996767 -0.00803524 -0.65)
(0.0996397 -0.00848059 -0.65)
(0.0996009 -0.00892578 -0.65)
(0.09956 -0.00937079 -0.65)
(0.0995171 -0.00981561 -0.65)
(0.0994722 -0.0102602 -0.65)
(0.0994254 -0.0107047 -0.65)
(0.0993766 -0.0111489 -0.65)
(0.0993258 -0.0115928 -0.65)
(0.099273 -0.0120366 -0.65)
(0.0992182 -0.0124801 -0.65)
(0.0991614 -0.0129234 -0.65)
(0.0991027 -0.0133664 -0.65)
(0.0990419 -0.0138091 -0.65)
(0.0989792 -0.0142516 -0.65)
(0.0989146 -0.0146938 -0.65)
(0.0988479 -0.0151356 -0.65)
(0.0987793 -0.0155772 -0.65)
(0.0987087 -0.0160185 -0.65)
(0.0986361 -0.0164595 -0.65)
(0.0985616 -0.0169001 -0.65)
(0.0984851 -0.0173404 -0.65)
(0.0984066 -0.0177803 -0.65)
(0.0983262 -0.0182199 -0.65)
(0.0982438 -0.0186591 -0.65)
(0.0981594 -0.019098 -0.65)
(0.0980731 -0.0195364 -0.65)
(0.0979848 -0.0199745 -0.65)
(0.0978945 -0.0204122 -0.65)
(0.0978024 -0.0208494 -0.65)
(0.0977082 -0.0212863 -0.65)
(0.0976121 -0.0217227 -0.65)
(0.0975141 -0.0221587 -0.65)
(0.0974141 -0.0225943 -0.65)
(0.0973121 -0.0230294 -0.65)
(0.0972082 -0.023464 -0.65)
(0.0971024 -0.0238982 -0.65)
(0.0969946 -0.0243319 -0.65)
(0.0968849 -0.0247651 -0.65)
(0.0967733 -0.0251978 -0.65)
(0.0966597 -0.02563 -0.65)
(0.0965442 -0.0260617 -0.65)
(0.0964268 -0.0264929 -0.65)
(0.0963074 -0.0269235 -0.65)
(0.0961862 -0.0273537 -0.65)
(0.096063 -0.0277832 -0.65)
(0.0959378 -0.0282122 -0.65)
(0.0958108 -0.0286407 -0.65)
(0.0956819 -0.0290686 -0.65)
(0.095551 -0.0294958 -0.65)
(0.0954182 -0.0299226 -0.65)
(0.0952836 -0.0303487 -0.65)
(0.095147 -0.0307742 -0.65)
(0.0950085 -0.0311991 -0.65)
(0.0948681 -0.0316233 -0.65)
(0.0947259 -0.032047 -0.65)
(0.0945817 -0.03247 -0.65)
(0.0944357 -0.0328923 -0.65)
(0.0942877 -0.033314 -0.65)
(0.0941379 -0.033735 -0.65)
(0.0939862 -0.0341553 -0.65)
(0.0938327 -0.034575 -0.65)
(0.0936772 -0.034994 -0.65)
(0.0935199 -0.0354123 -0.65)
(0.0933607 -0.0358298 -0.65)
(0.0931997 -0.0362467 -0.65)
(0.0930368 -0.0366628 -0.65)
(0.092872 -0.0370782 -0.65)
(0.0927054 -0.0374929 -0.65)
(0.0925369 -0.0379068 -0.65)
(0.0923666 -0.03832 -0.65)
(0.0921944 -0.0387323 -0.65)
(0.0920204 -0.039144 -0.65)
(0.0918445 -0.0395548 -0.65)
(0.0916669 -0.0399648 -0.65)
(0.0914874 -0.0403741 -0.65)
(0.091306 -0.0407825 -0.65)
(0.0911228 -0.0411901 -0.65)
(0.0909379 -0.0415969 -0.65)
(0.0907511 -0.0420029 -0.65)
(0.0905625 -0.042408 -0.65)
(0.090372 -0.0428123 -0.65)
(0.0901798 -0.0432157 -0.65)
(0.0899858 -0.0436183 -0.65)
(0.08979 -0.04402 -0.65)
(0.0895924 -0.0444208 -0.65)
(0.089393 -0.0448208 -0.65)
(0.0891918 -0.0452198 -0.65)
(0.0889888 -0.0456179 -0.65)
(0.088784 -0.0460151 -0.65)
(0.0885775 -0.0464114 -0.65)
(0.0883692 -0.0468068 -0.65)
(0.0881592 -0.0472012 -0.65)
(0.0879474 -0.0475947 -0.65)
(0.0877338 -0.0479873 -0.65)
(0.0875185 -0.0483789 -0.65)
(0.0873014 -0.0487695 -0.65)
(0.0870826 -0.0491591 -0.65)
(0.086862 -0.0495478 -0.65)
(0.0866398 -0.0499355 -0.65)
(0.0864157 -0.0503222 -0.65)
(0.08619 -0.0507078 -0.65)
(0.0859625 -0.0510925 -0.65)
(0.0857334 -0.0514761 -0.65)
(0.0855024 -0.0518587 -0.65)
(0.0852699 -0.0522403 -0.65)
(0.0850356 -0.0526209 -0.65)
(0.0847996 -0.0530004 -0.65)
(0.0845619 -0.0533788 -0.65)
(0.0843225 -0.0537561 -0.65)
(0.0840814 -0.0541324 -0.65)
(0.0838387 -0.0545076 -0.65)
(0.0835942 -0.0548817 -0.65)
(0.0833481 -0.0552548 -0.65)
(0.0831004 -0.0556267 -0.65)
(0.082851 -0.0559975 -0.65)
(0.0825999 -0.0563672 -0.65)
(0.0823472 -0.0567357 -0.65)
(0.0820928 -0.0571032 -0.65)
(0.0818368 -0.0574694 -0.65)
(0.0815792 -0.0578346 -0.65)
(0.0813199 -0.0581986 -0.65)
(0.081059 -0.0585614 -0.65)
(0.0807965 -0.058923 -0.65)
(0.0805324 -0.0592835 -0.65)
(0.0802666 -0.0596428 -0.65)
(0.0799993 -0.0600009 -0.65)
(0.0797304 -0.0603578 -0.65)
(0.0794599 -0.0607135 -0.65)
(0.0791877 -0.061068 -0.65)
(0.078914 -0.0614213 -0.65)
(0.0786388 -0.0617733 -0.65)
(0.0783619 -0.0621241 -0.65)
(0.0780835 -0.0624737 -0.65)
(0.0778036 -0.062822 -0.65)
(0.0775221 -0.0631691 -0.65)
(0.077239 -0.0635149 -0.65)
(0.0769544 -0.0638594 -0.65)
(0.0766682 -0.0642027 -0.65)
(0.0763806 -0.0645446 -0.65)
(0.0760914 -0.0648853 -0.65)
(0.0758006 -0.0652247 -0.65)
(0.0755084 -0.0655628 -0.65)
(0.0752147 -0.0658996 -0.65)
(0.0749194 -0.066235 -0.65)
(0.0746227 -0.0665692 -0.65)
(0.0743244 -0.066902 -0.65)
(0.0740247 -0.0672335 -0.65)
(0.0737235 -0.0675636 -0.65)
(0.0734209 -0.0678924 -0.65)
(0.0731167 -0.0682198 -0.65)
(0.0728111 -0.0685459 -0.65)
(0.0725041 -0.0688706 -0.65)
(0.0721956 -0.0691939 -0.65)
(0.0718857 -0.0695158 -0.65)
(0.0715743 -0.0698364 -0.65)
(0.0712615 -0.0701555 -0.65)
(0.0709473 -0.0704733 -0.65)
(0.0706316 -0.0707896 -0.65)
(0.0703146 -0.0711046 -0.65)
(0.0699961 -0.0714181 -0.65)
(0.0696763 -0.0717302 -0.65)
(0.069355 -0.0720408 -0.65)
(0.0690324 -0.07235 -0.65)
(0.0687084 -0.0726578 -0.65)
(0.068383 -0.0729641 -0.65)
(0.0680563 -0.073269 -0.65)
(0.0677282 -0.0735724 -0.65)
(0.0673987 -0.0738743 -0.65)
(0.0670679 -0.0741748 -0.65)
(0.0667357 -0.0744737 -0.65)
(0.0664023 -0.0747712 -0.65)
(0.0660675 -0.0750672 -0.65)
(0.0657314 -0.0753617 -0.65)
(0.0653939 -0.0756547 -0.65)
(0.0650552 -0.0759462 -0.65)
(0.0647151 -0.0762362 -0.65)
(0.0643738 -0.0765246 -0.65)
(0.0640312 -0.0768115 -0.65)
(0.0636873 -0.0770969 -0.65)
(0.0633421 -0.0773807 -0.65)
(0.0629957 -0.077663 -0.65)
(0.062648 -0.0779437 -0.65)
(0.062299 -0.0782229 -0.65)
(0.0619489 -0.0785006 -0.65)
(0.0615974 -0.0787766 -0.65)
(0.0612448 -0.0790511 -0.65)
(0.0608909 -0.079324 -0.65)
(0.0605358 -0.0795953 -0.65)
(0.0601795 -0.0798651 -0.65)
(0.059822 -0.0801332 -0.65)
(0.0594633 -0.0803997 -0.65)
(0.0591034 -0.0806646 -0.65)
(0.0587424 -0.080928 -0.65)
(0.0583801 -0.0811897 -0.65)
(0.0580167 -0.0814497 -0.65)
(0.0576522 -0.0817082 -0.65)
(0.0572864 -0.081965 -0.65)
(0.0569196 -0.0822202 -0.65)
(0.0565516 -0.0824737 -0.65)
(0.0561825 -0.0827256 -0.65)
(0.0558122 -0.0829759 -0.65)
(0.0554408 -0.0832245 -0.65)
(0.0550684 -0.0834714 -0.65)
(0.0546948 -0.0837167 -0.65)
(0.0543201 -0.0839602 -0.65)
(0.0539444 -0.0842021 -0.65)
(0.0535676 -0.0844424 -0.65)
(0.0531897 -0.0846809 -0.65)
(0.0528107 -0.0849178 -0.65)
(0.0524307 -0.0851529 -0.65)
(0.0520497 -0.0853864 -0.65)
(0.0516676 -0.0856181 -0.65)
(0.0512845 -0.0858482 -0.65)
(0.0509003 -0.0860765 -0.65)
(0.0505151 -0.0863031 -0.65)
(0.0501289 -0.086528 -0.65)
(0.0497418 -0.0867511 -0.65)
(0.0493536 -0.0869725 -0.65)
(0.0489644 -0.0871922 -0.65)
(0.0485743 -0.0874102 -0.65)
(0.0481832 -0.0876264 -0.65)
(0.0477911 -0.0878408 -0.65)
(0.0473981 -0.0880535 -0.65)
(0.0470041 -0.0882644 -0.65)
(0.0466092 -0.0884736 -0.65)
(0.0462134 -0.088681 -0.65)
(0.0458166 -0.0888867 -0.65)
(0.045419 -0.0890905 -0.65)
(0.0450204 -0.0892926 -0.65)
(0.0446209 -0.0894929 -0.65)
(0.0442205 -0.0896914 -0.65)
(0.0438193 -0.0898881 -0.65)
(0.0434171 -0.090083 -0.65)
(0.0430141 -0.0902762 -0.65)
(0.0426103 -0.0904675 -0.65)
(0.0422056 -0.090657 -0.65)
(0.0418 -0.0908447 -0.65)
(0.0413936 -0.0910306 -0.65)
(0.0409864 -0.0912147 -0.65)
(0.0405784 -0.0913969 -0.65)
(0.0401695 -0.0915773 -0.65)
(0.0397599 -0.0917559 -0.65)
(0.0393495 -0.0919327 -0.65)
(0.0389382 -0.0921076 -0.65)
(0.0385262 -0.0922807 -0.65)
(0.0381135 -0.092452 -0.65)
(0.0376999 -0.0926214 -0.65)
(0.0372856 -0.0927889 -0.65)
(0.0368706 -0.0929546 -0.65)
(0.0364548 -0.0931184 -0.65)
(0.0360384 -0.0932804 -0.65)
(0.0356212 -0.0934405 -0.65)
(0.0352032 -0.0935988 -0.65)
(0.0347846 -0.0937552 -0.65)
(0.0343653 -0.0939097 -0.65)
(0.0339453 -0.0940623 -0.65)
(0.0335246 -0.0942131 -0.65)
(0.0331032 -0.094362 -0.65)
(0.0326812 -0.0945089 -0.65)
(0.0322585 -0.094654 -0.65)
(0.0318352 -0.0947972 -0.65)
(0.0314113 -0.0949386 -0.65)
(0.0309867 -0.095078 -0.65)
(0.0305615 -0.0952155 -0.65)
(0.0301357 -0.0953511 -0.65)
(0.0297093 -0.0954849 -0.65)
(0.0292823 -0.0956167 -0.65)
(0.0288547 -0.0957466 -0.65)
(0.0284265 -0.0958746 -0.65)
(0.0279978 -0.0960006 -0.65)
(0.0275685 -0.0961248 -0.65)
(0.0271387 -0.096247 -0.65)
(0.0267083 -0.0963674 -0.65)
(0.0262774 -0.0964857 -0.65)
(0.0258459 -0.0966022 -0.65)
(0.025414 -0.0967168 -0.65)
(0.0249815 -0.0968294 -0.65)
(0.0245485 -0.09694 -0.65)
(0.0241151 -0.0970488 -0.65)
(0.0236812 -0.0971556 -0.65)
(0.0232467 -0.0972604 -0.65)
(0.0228119 -0.0973633 -0.65)
(0.0223766 -0.0974643 -0.65)
(0.0219408 -0.0975633 -0.65)
(0.0215046 -0.0976604 -0.65)
(0.0210679 -0.0977555 -0.65)
(0.0206309 -0.0978487 -0.65)
(0.0201934 -0.0979399 -0.65)
(0.0197555 -0.0980292 -0.65)
(0.0193172 -0.0981165 -0.65)
(0.0188786 -0.0982018 -0.65)
(0.0184396 -0.0982852 -0.65)
(0.0180001 -0.0983666 -0.65)
(0.0175604 -0.0984461 -0.65)
(0.0171203 -0.0985236 -0.65)
(0.0166798 -0.0985991 -0.65)
(0.016239 -0.0986727 -0.65)
(0.0157979 -0.0987442 -0.65)
(0.0153565 -0.0988139 -0.65)
(0.0149148 -0.0988815 -0.65)
(0.0144727 -0.0989472 -0.65)
(0.0140304 -0.0990108 -0.65)
(0.0135878 -0.0990726 -0.65)
(0.0131449 -0.0991323 -0.65)
(0.0127018 -0.09919 -0.65)
(0.0122584 -0.0992458 -0.65)
(0.0118148 -0.0992996 -0.65)
(0.0113709 -0.0993514 -0.65)
(0.0109268 -0.0994012 -0.65)
(0.0104825 -0.0994491 -0.65)
(0.0100379 -0.0994949 -0.65)
(0.00959322 -0.0995388 -0.65)
(0.00914831 -0.0995807 -0.65)
(0.00870321 -0.0996206 -0.65)
(0.00825793 -0.0996584 -0.65)
(0.0078125 -0.0996944 -0.65)
(0.0073669 -0.0997283 -0.65)
(0.00692116 -0.0997602 -0.65)
(0.00647528 -0.0997901 -0.65)
(0.00602927 -0.0998181 -0.65)
(0.00558314 -0.099844 -0.65)
(0.0051369 -0.099868 -0.65)
(0.00469056 -0.0998899 -0.65)
(0.00424412 -0.0999099 -0.65)
(0.0037976 -0.0999279 -0.65)
(0.003351 -0.0999438 -0.65)
(0.00290434 -0.0999578 -0.65)
(0.00245761 -0.0999698 -0.65)
(0.00201084 -0.0999798 -0.65)
(0.00156403 -0.0999878 -0.65)
(0.00111719 -0.0999938 -0.65)
(0.000670321 -0.0999977 -0.65)
(0.000223442 -0.0999997 -0.65)
(-0.000223442 -0.0999997 -0.65)
(-0.000670321 -0.0999977 -0.65)
(-0.00111719 -0.0999938 -0.65)
(-0.00156403 -0.0999878 -0.65)
(-0.00201084 -0.0999798 -0.65)
(-0.00245761 -0.0999698 -0.65)
(-0.00290434 -0.0999578 -0.65)
(-0.003351 -0.0999438 -0.65)
(-0.0037976 -0.0999279 -0.65)
(-0.00424412 -0.0999099 -0.65)
(-0.00469056 -0.0998899 -0.65)
(-0.0051369 -0.099868 -0.65)
(-0.00558314 -0.099844 -0.65)
(-0.00602927 -0.0998181 -0.65)
(-0.00647528 -0.0997901 -0.65)
(-0.00692116 -0.0997602 -0.65)
(-0.0073669 -0.0997283 -0.65)
(-0.0078125 -0.0996944 -0.65)
(-0.00825793 -0.0996584 -0.65)
(-0.00870321 -0.0996206 -0.65)
(-0.00914831 -0.0995807 -0.65)
(-0.00959322 -0.0995388 -0.65)
(-0.0100379 -0.0994949 -0.65)
(-0.0104825 -0.0994491 -0.65)
(-0.0109268 -0.0994012 -0.65)
(-0.0113709 -0.0993514 -0.65)
(-0.0118148 -0.0992996 -0.65)
(-0.0122584 -0.0992458 -0.65)
(-0.0127018 -0.09919 -0.65)
(-0.0131449 -0.0991323 -0.65)
(-0.0135878 -0.0990726 -0.65)
(-0.0140304 -0.0990108 -0.65)
(-0.0144727 -0.0989472 -0.65)
(-0.0149148 -0.0988815 -0.65)
(-0.0153565 -0.0988139 -0.65)
(-0.0157979 -0.0987442 -0.65)
(-0.016239 -0.0986727 -0.65)
(-0.0166798 -0.0985991 -0.65)
(-0.0171203 -0.0985236 -0.65)
(-0.0175604 -0.0984461 -0.65)
(-0.0180001 -0.0983666 -0.65)
(-0.0184396 -0.0982852 -0.65)
(-0.0188786 -0.0982018 -0.65)
(-0.0193172 -0.0981165 -0.65)
(-0.0197555 -0.0980292 -0.65)
(-0.0201934 -0.0979399 -0.65)
(-0.0206309 -0.0978487 -0.65)
(-0.0210679 -0.0977555 -0.65)
(-0.0215046 -0.0976604 -0.65)
(-0.0219408 -0.0975633 -0.65)
(-0.0223766 -0.0974643 -0.65)
(-0.0228119 -0.0973633 -0.65)
(-0.0232467 -0.0972604 -0.65)
(-0.0236812 -0.0971556 -0.65)
(-0.0241151 -0.0970488 -0.65)
(-0.0245485 -0.09694 -0.65)
(-0.0249815 -0.0968294 -0.65)
(-0.025414 -0.0967168 -0.65)
(-0.0258459 -0.0966022 -0.65)
(-0.0262774 -0.0964857 -0.65)
(-0.0267083 -0.0963674 -0.65)
(-0.0271387 -0.096247 -0.65)
(-0.0275685 -0.0961248 -0.65)
(-0.0279978 -0.0960006 -0.65)
(-0.0284265 -0.0958746 -0.65)
(-0.0288547 -0.0957466 -0.65)
(-0.0292823 -0.0956167 -0.65)
(-0.0297093 -0.0954849 -0.65)
(-0.0301357 -0.0953511 -0.65)
(-0.0305615 -0.0952155 -0.65)
(-0.0309867 -0.095078 -0.65)
(-0.0314113 -0.0949386 -0.65)
(-0.0318352 -0.0947972 -0.65)
(-0.0322585 -0.094654 -0.65)
(-0.0326812 -0.0945089 -0.65)
(-0.0331032 -0.094362 -0.65)
(-0.0335246 -0.0942131 -0.65)
(-0.0339453 -0.0940623 -0.65)
(-0.0343653 -0.0939097 -0.65)
(-0.0347846 -0.0937552 -0.65)
(-0.0352032 -0.0935988 -0.65)
(-0.0356212 -0.0934405 -0.65)
(-0.0360384 -0.0932804 -0.65)
(-0.0364548 -0.0931184 -0.65)
(-0.0368706 -0.0929546 -0.65)
(-0.0372856 -0.0927889 -0.65)
(-0.0376999 -0.0926214 -0.65)
(-0.0381135 -0.092452 -0.65)
(-0.0385262 -0.0922807 -0.65)
(-0.0389382 -0.0921076 -0.65)
(-0.0393495 -0.0919327 -0.65)
(-0.0397599 -0.0917559 -0.65)
(-0.0401695 -0.0915773 -0.65)
(-0.0405784 -0.0913969 -0.65)
(-0.0409864 -0.0912147 -0.65)
(-0.0413936 -0.0910306 -0.65)
(-0.0418 -0.0908447 -0.65)
(-0.0422056 -0.090657 -0.65)
(-0.0426103 -0.0904675 -0.65)
(-0.0430141 -0.0902762 -0.65)
(-0.0434171 -0.090083 -0.65)
(-0.0438193 -0.0898881 -0.65)
(-0.0442205 -0.0896914 -0.65)
(-0.0446209 -0.0894929 -0.65)
(-0.0450204 -0.0892926 -0.65)
(-0.045419 -0.0890905 -0.65)
(-0.0458166 -0.0888867 -0.65)
(-0.0462134 -0.088681 -0.65)
(-0.0466092 -0.0884736 -0.65)
(-0.0470041 -0.0882644 -0.65)
(-0.0473981 -0.0880535 -0.65)
(-0.0477911 -0.0878408 -0.65)
(-0.0481832 -0.0876264 -0.65)
(-0.0485743 -0.0874102 -0.65)
(-0.0489644 -0.0871922 -0.65)
(-0.0493536 -0.0869725 -0.65)
(-0.0497418 -0.0867511 -0.65)
(-0.0501289 -0.086528 -0.65)
(-0.0505151 -0.0863031 -0.65)
(-0.0509003 -0.0860765 -0.65)
(-0.0512845 -0.0858482 -0.65)
(-0.0516676 -0.0856181 -0.65)
(-0.0520497 -0.0853864 -0.65)
(-0.0524307 -0.0851529 -0.65)
(-0.0528107 -0.0849178 -0.65)
(-0.0531897 -0.0846809 -0.65)
(-0.0535676 -0.0844424 -0.65)
(-0.0539444 -0.0842021 -0.65)
(-0.0543201 -0.0839602 -0.65)
(-0.0546948 -0.0837167 -0.65)
(-0.0550684 -0.0834714 -0.65)
(-0.0554408 -0.0832245 -0.65)
(-0.0558122 -0.0829759 -0.65)
(-0.0561825 -0.0827256 -0.65)
(-0.0565516 -0.0824737 -0.65)
(-0.0569196 -0.0822202 -0.65)
(-0.0572864 -0.081965 -0.65)
(-0.0576522 -0.0817082 -0.65)
(-0.0580167 -0.0814497 -0.65)
(-0.0583801 -0.0811897 -0.65)
(-0.0587424 -0.080928 -0.65)
(-0.0591034 -0.0806646 -0.65)
(-0.0594633 -0.0803997 -0.65)
(-0.059822 -0.0801332 -0.65)
(-0.0601795 -0.0798651 -0.65)
(-0.0605358 -0.0795953 -0.65)
(-0.0608909 -0.079324 -0.65)
(-0.0612448 -0.0790511 -0.65)
(-0.0615974 -0.0787766 -0.65)
(-0.0619489 -0.0785006 -0.65)
(-0.062299 -0.0782229 -0.65)
(-0.062648 -0.0779437 -0.65)
(-0.0629957 -0.077663 -0.65)
(-0.0633421 -0.0773807 -0.65)
(-0.0636873 -0.0770969 -0.65)
(-0.0640312 -0.0768115 -0.65)
(-0.0643738 -0.0765246 -0.65)
(-0.0647151 -0.0762362 -0.65)
(-0.0650552 -0.0759462 -0.65)
(-0.0653939 -0.0756547 -0.65)
(-0.0657314 -0.0753617 -0.65)
(-0.0660675 -0.0750672 -0.65)
(-0.0664023 -0.0747712 -0.65)
(-0.0667357 -0.0744737 -0.65)
(-0.0670679 -0.0741748 -0.65)
(-0.0673987 -0.0738743 -0.65)
(-0.0677282 -0.0735724 -0.65)
(-0.0680563 -0.073269 -0.65)
(-0.068383 -0.0729641 -0.65)
(-0.0687084 -0.0726578 -0.65)
(-0.0690324 -0.07235 -0.65)
(-0.069355 -0.0720408 -0.65)
(-0.0696763 -0.0717302 -0.65)
(-0.0699961 -0.0714181 -0.65)
(-0.0703146 -0.0711046 -0.65)
(-0.0706316 -0.0707896 -0.65)
(-0.0709473 -0.0704733 -0.65)
(-0.0712615 -0.0701555 -0.65)
(-0.0715743 -0.0698364 -0.65)
(-0.0718857 -0.0695158 -0.65)
(-0.0721956 -0.0691939 -0.65)
(-0.0725041 -0.0688706 -0.65)
(-0.0728111 -0.0685459 -0.65)
(-0.0731167 -0.0682198 -0.65)
(-0.0734209 -0.0678924 -0.65)
(-0.0737235 -0.0675636 -0.65)
(-0.0740247 -0.0672335 -0.65)
(-0.0743244 -0.066902 -0.65)
(-0.0746227 -0.0665692 -0.65)
(-0.0749194 -0.066235 -0.65)
(-0.0752147 -0.0658996 -0.65)
(-0.0755084 -0.0655628 -0.65)
(-0.0758006 -0.0652247 -0.65)
(-0.0760914 -0.0648853 -0.65)
(-0.0763806 -0.0645446 -0.65)
(-0.0766682 -0.0642027 -0.65)
(-0.0769544 -0.0638594 -0.65)
(-0.077239 -0.0635149 -0.65)
(-0.0775221 -0.0631691 -0.65)
(-0.0778036 -0.062822 -0.65)
(-0.0780835 -0.0624737 -0.65)
(-0.0783619 -0.0621241 -0.65)
(-0.0786388 -0.0617733 -0.65)
(-0.078914 -0.0614213 -0.65)
(-0.0791877 -0.061068 -0.65)
(-0.0794599 -0.0607135 -0.65)
(-0.0797304 -0.0603578 -0.65)
(-0.0799993 -0.0600009 -0.65)
(-0.0802666 -0.0596428 -0.65)
(-0.0805324 -0.0592835 -0.65)
(-0.0807965 -0.058923 -0.65)
(-0.081059 -0.0585614 -0.65)
(-0.0813199 -0.0581986 -0.65)
(-0.0815792 -0.0578346 -0.65)
(-0.0818368 -0.0574694 -0.65)
(-0.0820928 -0.0571032 -0.65)
(-0.0823472 -0.0567357 -0.65)
(-0.0825999 -0.0563672 -0.65)
(-0.082851 -0.0559975 -0.65)
(-0.0831004 -0.0556267 -0.65)
(-0.0833481 -0.0552548 -0.65)
(-0.0835942 -0.0548817 -0.65)
(-0.0838387 -0.0545076 -0.65)
(-0.0840814 -0.0541324 -0.65)
(-0.0843225 -0.0537561 -0.65)
(-0.0845619 -0.0533788 -0.65)
(-0.0847996 -0.0530004 -0.65)
(-0.0850356 -0.0526209 -0.65)
(-0.0852699 -0.0522403 -0.65)
(-0.0855024 -0.0518587 -0.65)
(-0.0857334 -0.0514761 -0.65)
(-0.0859625 -0.0510925 -0.65)
(-0.08619 -0.0507078 -0.65)
(-0.0864157 -0.0503222 -0.65)
(-0.0866398 -0.0499355 -0.65)
(-0.086862 -0.0495478 -0.65)
(-0.0870826 -0.0491591 -0.65)
(-0.0873014 -0.0487695 -0.65)
(-0.0875185 -0.0483789 -0.65)
(-0.0877338 -0.0479873 -0.65)
(-0.0879474 -0.0475947 -0.65)
(-0.0881592 -0.0472012 -0.65)
(-0.0883692 -0.0468068 -0.65)
(-0.0885775 -0.0464114 -0.65)
(-0.088784 -0.0460151 -0.65)
(-0.0889888 -0.0456179 -0.65)
(-0.0891918 -0.0452198 -0.65)
(-0.089393 -0.0448208 -0.65)
(-0.0895924 -0.0444208 -0.65)
(-0.08979 -0.04402 -0.65)
(-0.0899858 -0.0436183 -0.65)
(-0.0901798 -0.0432157 -0.65)
(-0.090372 -0.0428123 -0.65)
(-0.0905625 -0.042408 -0.65)
(-0.0907511 -0.0420029 -0.65)
(-0.0909379 -0.0415969 -0.65)
(-0.0911228 -0.0411901 -0.65)
(-0.091306 -0.0407825 -0.65)
(-0.0914874 -0.0403741 -0.65)
(-0.0916669 -0.0399648 -0.65)
(-0.0918445 -0.0395548 -0.65)
(-0.0920204 -0.039144 -0.65)
(-0.0921944 -0.0387323 -0.65)
(-0.0923666 -0.03832 -0.65)
(-0.0925369 -0.0379068 -0.65)
(-0.0927054 -0.0374929 -0.65)
(-0.092872 -0.0370782 -0.65)
(-0.0930368 -0.0366628 -0.65)
(-0.0931997 -0.0362467 -0.65)
(-0.0933607 -0.0358298 -0.65)
(-0.0935199 -0.0354123 -0.65)
(-0.0936772 -0.034994 -0.65)
(-0.0938327 -0.034575 -0.65)
(-0.0939862 -0.0341553 -0.65)
(-0.0941379 -0.033735 -0.65)
(-0.0942877 -0.033314 -0.65)
(-0.0944357 -0.0328923 -0.65)
(-0.0945817 -0.03247 -0.65)
(-0.0947259 -0.032047 -0.65)
(-0.0948681 -0.0316233 -0.65)
(-0.0950085 -0.0311991 -0.65)
(-0.095147 -0.0307742 -0.65)
(-0.0952836 -0.0303487 -0.65)
(-0.0954182 -0.0299226 -0.65)
(-0.095551 -0.0294958 -0.65)
(-0.0956819 -0.0290686 -0.65)
(-0.0958108 -0.0286407 -0.65)
(-0.0959378 -0.0282122 -0.65)
(-0.096063 -0.0277832 -0.65)
(-0.0961862 -0.0273537 -0.65)
(-0.0963074 -0.0269235 -0.65)
(-0.0964268 -0.0264929 -0.65)
(-0.0965442 -0.0260617 -0.65)
(-0.0966597 -0.02563 -0.65)
(-0.0967733 -0.0251978 -0.65)
(-0.0968849 -0.0247651 -0.65)
(-0.0969946 -0.0243319 -0.65)
(-0.0971024 -0.0238982 -0.65)
(-0.0972082 -0.023464 -0.65)
(-0.0973121 -0.0230294 -0.65)
(-0.0974141 -0.0225943 -0.65)
(-0.0975141 -0.0221587 -0.65)
(-0.0976121 -0.0217227 -0.65)
(-0.0977082 -0.0212863 -0.65)
(-0.0978024 -0.0208494 -0.65)
(-0.0978945 -0.0204122 -0.65)
(-0.0979848 -0.0199745 -0.65)
(-0.0980731 -0.0195364 -0.65)
(-0.0981594 -0.019098 -0.65)
(-0.0982438 -0.0186591 -0.65)
(-0.0983262 -0.0182199 -0.65)
(-0.0984066 -0.0177803 -0.65)
(-0.0984851 -0.0173404 -0.65)
(-0.0985616 -0.0169001 -0.65)
(-0.0986361 -0.0164595 -0.65)
(-0.0987087 -0.0160185 -0.65)
(-0.0987793 -0.0155772 -0.65)
(-0.0988479 -0.0151356 -0.65)
(-0.0989146 -0.0146938 -0.65)
(-0.0989792 -0.0142516 -0.65)
(-0.0990419 -0.0138091 -0.65)
(-0.0991027 -0.0133664 -0.65)
(-0.0991614 -0.0129234 -0.65)
(-0.0992182 -0.0124801 -0.65)
(-0.099273 -0.0120366 -0.65)
(-0.0993258 -0.0115928 -0.65)
(-0.0993766 -0.0111489 -0.65)
(-0.0994254 -0.0107047 -0.65)
(-0.0994722 -0.0102602 -0.65)
(-0.0995171 -0.00981561 -0.65)
(-0.09956 -0.00937079 -0.65)
(-0.0996009 -0.00892578 -0.65)
(-0.0996397 -0.00848059 -0.65)
(-0.0996767 -0.00803524 -0.65)
(-0.0997116 -0.00758972 -0.65)
(-0.0997445 -0.00714405 -0.65)
(-0.0997754 -0.00669824 -0.65)
(-0.0998044 -0.00625229 -0.65)
(-0.0998313 -0.00580622 -0.65)
(-0.0998562 -0.00536003 -0.65)
(-0.0998792 -0.00491374 -0.65)
(-0.0999002 -0.00446735 -0.65)
(-0.0999191 -0.00402087 -0.65)
(-0.0999361 -0.00357431 -0.65)
(-0.0999511 -0.00312768 -0.65)
(-0.0999641 -0.00268098 -0.65)
(-0.099975 -0.00223423 -0.65)
(-0.099984 -0.00178744 -0.65)
(-0.099991 -0.00134061 -0.65)
(-0.099996 -0.000893756 -0.65)
(-0.099999 -0.000446882 -0.65)
(-0.1 0 -0.65)
(-0.099999 0.000446882 -0.65)
(-0.099996 0.000893756 -0.65)
(-0.099991 0.00134061 -0.65)
(-0.099984 0.00178744 -0.65)
(-0.099975 0.00223423 -0.65)
(-0.0999641 0.00268098 -0.65)
(-0.0999511 0.00312768 -0.65)
(-0.0999361 0.00357431 -0.65)
(-0.0999191 0.00402087 -0.65)
(-0.0999002 0.00446735 -0.65)
(-0.0998792 0.00491374 -0.65)
(-0.0998562 0.00536003 -0.65)
(-0.0998313 0.00580622 -0.65)
(-0.0998044 0.00625229 -0.65)
(-0.0997754 0.00669824 -0.65)
(-0.0997445 0.00714405 -0.65)
(-0.0997116 0.00758972 -0.65)
(-0.0996767 0.00803524 -0.65)
(-0.0996397 0.00848059 -0.65)
(-0.0996009 0.00892578 -0.65)
(-0.09956 0.00937079 -0.65)
(-0.0995171 0.00981561 -0.65)
(-0.0994722 0.0102602 -0.65)
(-0.0994254 0.0107047 -0.65)
(-0.0993766 0.0111489 -0.65)
(-0.0993258 0.0115928 -0.65)
(-0.099273 0.0120366 -0.65)
(-0.0992182 0.0124801 -0.65)
(-0.0991614 0.0129234 -0.65)
(-0.0991027 0.0133664 -0.65)
(-0.0990419 0.0138091 -0.65)
(-0.0989792 0.0142516 -0.65)
(-0.0989146 0.0146938 -0.65)
(-0.0988479 0.0151356 -0.65)
(-0.0987793 0.0155772 -0.65)
(-0.0987087 0.0160185 -0.65)
(-0.0986361 0.0164595 -0.65)
(-0.0985616 0.0169001 -0.65)
(-0.0984851 0.0173404 -0.65)
(-0.0984066 0.0177803 -0.65)
(-0.0983262 0.0182199 -0.65)
(-0.0982438 0.0186591 -0.65)
(-0.0981594 0.019098 -0.65)
(-0.0980731 0.0195364 -0.65)
(-0.0979848 0.0199745 -0.65)
(-0.0978945 0.0204122 -0.65)
(-0.0978024 0.0208494 -0.65)
(-0.0977082 0.0212863 -0.65)
(-0.0976121 0.0217227 -0.65)
(-0.0975141 0.0221587 -0.65)
(-0.0974141 0.0225943 -0.65)
(-0.0973121 0.0230294 -0.65)
(-0.0972082 0.023464 -0.65)
(-0.0971024 0.0238982 -0.65)
(-0.0969946 0.0243319 -0.65)
(-0.0968849 0.0247651 -0.65)
(-0.0967733 0.0251978 -0.65)
(-0.0966597 0.02563 -0.65)
(-0.0965442 0.0260617 -0.65)
(-0.0964268 0.0264929 -0.65)
(-0.0963074 0.0269235 -0.65)
(-0.0961862 0.0273537 -0.65)
(-0.096063 0.0277832 -0.65)
(-0.0959378 0.0282122 -0.65)
(-0.0958108 0.0286407 -0.65)
(-0.0956819 0.0290686 -0.65)
(-0.095551 0.0294958 -0.65)
(-0.0954182 0.0299226 -0.65)
(-0.0952836 0.0303487 -0.65)
(-0.095147 0.0307742 -0.65)
(-0.0950085 0.0311991 -0.65)
(-0.0948681 0.0316233 -0.65)
(-0.0947259 0.032047 -0.65)
(-0.0945817 0.03247 -0.65)
(-0.0944357 0.0328923 -0.65)
(-0.0942877 0.033314 -0.65)
(-0.0941379 0.033735 -0.65)
(-0.0939862 0.0341553 -0.65)
(-0.0938327 0.034575 -0.65)
(-0.0936772 0.034994 -0.65)
(-0.0935199 0.0354123 -0.65)
(-0.0933607 0.0358298 -0.65)
(-0.0931997 0.0362467 -0.65)
(-0.0930368 0.0366628 -0.65)
(-0.092872 0.0370782 -0.65)
(-0.0927054 0.0374929 -0.65)
(-0.0925369 0.0379068 -0.65)
(-0.0923666 0.03832 -0.65)
(-0.0921944 0.0387323 -0.65)
(-0.0920204 0.039144 -0.65)
(-0.0918445 0.0395548 -0.65)
(-0.0916669 0.0399648 -0.65)
(-0.0914874 0.0403741 -0.65)
(-0.091306 0.0407825 -0.65)
(-0.0911228 0.0411901 -0.65)
(-0.0909379 0.0415969 -0.65)
(-0.0907511 0.0420029 -0.65)
(-0.0905625 0.042408 -0.65)
(-0.090372 0.0428123 -0.65)
(-0.0901798 0.0432157 -0.65)
(-0.0899858 0.0436183 -0.65)
(-0.08979 0.04402 -0.65)
(-0.0895924 0.0444208 -0.65)
(-0.089393 0.0448208 -0.65)
(-0.0891918 0.0452198 -0.65)
(-0.0889888 0.0456179 -0.65)
(-0.088784 0.0460151 -0.65)
(-0.0885775 0.0464114 -0.65)
(-0.0883692 0.0468068 -0.65)
(-0.0881592 0.0472012 -0.65)
(-0.0879474 0.0475947 -0.65)
(-0.0877338 0.0479873 -0.65)
(-0.0875185 0.0483789 -0.65)
(-0.0873014 0.0487695 -0.65)
(-0.0870826 0.0491591 -0.65)
(-0.086862 0.0495478 -0.65)
(-0.0866398 0.0499355 -0.65)
(-0.0864157 0.0503222 -0.65)
(-0.08619 0.0507078 -0.65)
(-0.0859625 0.0510925 -0.65)
(-0.0857334 0.0514761 -0.65)
(-0.0855024 0.0518587 -0.65)
(-0.0852699 0.0522403 -0.65)
(-0.0850356 0.0526209 -0.65)
(-0.0847996 0.0530004 -0.65)
(-0.0845619 0.0533788 -0.65)
(-0.0843225 0.0537561 -0.65)
(-0.0840814 0.0541324 -0.65)
(-0.0838387 0.0545076 -0.65)
(-0.0835942 0.0548817 -0.65)
(-0.0833481 0.0552548 -0.65)
(-0.0831004 0.0556267 -0.65)
(-0.082851 0.0559975 -0.65)
(-0.0825999 0.0563672 -0.65)
(-0.0823472 0.0567357 -0.65)
(-0.0820928 0.0571032 -0.65)
(-0.0818368 0.0574694 -0.65)
(-0.0815792 0.0578346 -0.65)
(-0.0813199 0.0581986 -0.65)
(-0.081059 0.0585614 -0.65)
(-0.0807965 0.058923 -0.65)
(-0.0805324 0.0592835 -0.65)
(-0.0802666 0.0596428 -0.65)
(-0.0799993 0.0600009 -0.65)
(-0.0797304 0.0603578 -0.65)
(-0.0794599 0.0607135 -0.65)
(-0.0791877 0.061068 -0.65)
(-0.078914 0.0614213 -0.65)
(-0.0786388 0.0617733 -0.65)
(-0.0783619 0.0621241 -0.65)
(-0.0780835 0.0624737 -0.65)
(-0.0778036 0.062822 -0.65)
(-0.0775221 0.0631691 -0.65)
(-0.077239 0.0635149 -0.65)
(-0.0769544 0.0638594 -0.65)
(-0.0766682 0.0642027 -0.65)
(-0.0763806 0.0645446 -0.65)
(-0.0760914 0.0648853 -0.65)
(-0.0758006 0.0652247 -0.65)
(-0.0755084 0.0655628 -0.65)
(-0.0752147 0.0658996 -0.65)
(-0.0749194 0.066235 -0.65)
(-0.0746227 0.0665692 -0.65)
(-0.0743244 0.066902 -0.65)
(-0.0740247 0.0672335 -0.65)
(-0.0737235 0.0675636 -0.65)
(-0.0734209 0.0678924 -0.65)
(-0.0731167 0.0682198 -0.65)
(-0.0728111 0.0685459 -0.65)
(-0.0725041 0.0688706 -0.65)
(-0.0721956 0.0691939 -0.65)
(-0.0718857 0.0695158 -0.65)
(-0.0715743 0.0698364 -0.65)
(-0.0712615 0.0701555 -0.65)
(-0.0709473 0.0704733 -0.65)
(-0.0706316 0.0707896 -0.65)
(-0.0703146 0.0711046 -0.65)
(-0.0699961 0.0714181 -0.65)
(-0.0696763 0.0717302 -0.65)
(-0.069355 0.0720408 -0.65)
(-0.0690324 0.07235 -0.65)
(-0.0687084 0.0726578 -0.65)
(-0.068383 0.0729641 -0.65)
(-0.0680563 0.073269 -0.65)
(-0.0677282 0.0735724 -0.65)
(-0.0673987 0.0738743 -0.65)
(-0.0670679 0.0741748 -0.65)
(-0.0667357 0.0744737 -0.65)
(-0.0664023 0.0747712 -0.65)
(-0.0660675 0.0750672 -0.65)
(-0.0657314 0.0753617 -0.65)
(-0.0653939 0.0756547 -0.65)
(-0.0650552 0.0759462 -0.65)
(-0.0647151 0.0762362 -0.65)
(-0.0643738 0.0765246 -0.65)
(-0.0640312 0.0768115 -0.65)
(-0.0636873 0.0770969 -0.65)
(-0.0633421 0.0773807 -0.65)
(-0.0629957 0.077663 -0.65)
(-0.062648 0.0779437 -0.65)
(-0.062299 0.0782229 -0.65)
(-0.0619489 0.0785006 -0.65)
(-0.0615974 0.0787766 -0.65)
(-0.0612448 0.0790511 -0.65)
(-0.0608909 0.079324 -0.65)
(-0.0605358 0.0795953 -0.65)
(-0.0601795 0.0798651 -0.65)
(-0.059822 0.0801332 -0.65)
(-0.0594633 0.0803997 -0.65)
(-0.0591034 0.0806646 -0.65)
(-0.0587424 0.080928 -0.65)
(-0.0583801 0.0811897 -0.65)
(-0.0580167 0.0814497 -0.65)
(-0.0576522 0.0817082 -0.65)
(-0.0572864 0.081965 -0.65)
(-0.0569196 0.0822202 -0.65)
(-0.0565516 0.0824737 -0.65)
(-0.0561825 0.0827256 -0.65)
(-0.0558122 0.0829759 -0.65)
(-0.0554408 0.0832245 -0.65)
(-0.0550684 0.0834714 -0.65)
(-0.0546948 0.0837167 -0.65)
(-0.0543201 0.0839602 -0.65)
(-0.0539444 0.0842021 -0.65)
(-0.0535676 0.0844424 -0.65)
(-0.0531897 0.0846809 -0.65)
(-0.0528107 0.0849178 -0.65)
(-0.0524307 0.0851529 -0.65)
(-0.0520497 0.0853864 -0.65)
(-0.0516676 0.0856181 -0.65)
(-0.0512845 0.0858482 -0.65)
(-0.0509003 0.0860765 -0.65)
(-0.0505151 0.0863031 -0.65)
(-0.0501289 0.086528 -0.65)
(-0.0497418 0.0867511 -0.65)
(-0.0493536 0.0869725 -0.65)
(-0.0489644 0.0871922 -0.65)
(-0.0485743 0.0874102 -0.65)
(-0.0481832 0.0876264 -0.65)
(-0.0477911 0.0878408 -0.65)
(-0.0473981 0.0880535 -0.65)
(-0.0470041 0.0882644 -0.65)
(-0.0466092 0.0884736 -0.65)
(-0.0462134 0.088681 -0.65)
(-0.0458166 0.0888867 -0.65)
(-0.045419 0.0890905 -0.65)
(-0.0450204 0.0892926 -0.65)
(-0.0446209 0.0894929 -0.65)
(-0.0442205 0.0896914 -0.65)
(-0.0438193 0.0898881 -0.65)
(-0.0434171 0.090083 -0.65)
(-0.0430141 0.0902762 -0.65)
(-0.0426103 0.0904675 -0.65)
(-0.0422056 0.090657 -0.65)
(-0.0418 0.0908447 -0.65)
(-0.0413936 0.0910306 -0.65)
(-0.0409864 0.0912147 -0.65)
(-0.0405784 0.0913969 -0.65)
(-0.0401695 0.0915773 -0.65)
(-0.0397599 0.0917559 -0.65)
(-0.0393495 0.0919327 -0.65)
(-0.0389382 0.0921076 -0.65)
(-0.0385262 0.0922807 -0.65)
(-0.0381135 0.092452 -0.65)
(-0.0376999 0.0926214 -0.65)
(-0.0372856 0.0927889 -0.65)
(-0.0368706 0.0929546 -0.65)
(-0.0364548 0.0931184 -0.65)
(-0.0360384 0.0932804 -0.65)
(-0.0356212 0.0934405 -0.65)
(-0.0352032 0.0935988 -0.65)
(-0.0347846 0.0937552 -0.65)
(-0.0343653 0.0939097 -0.65)
(-0.0339453 0.0940623 -0.65)
(-0.0335246 0.0942131 -0.65)
(-0.0331032 0.094362 -0.65)
(-0.0326812 0.0945089 -0.65)
(-0.0322585 0.094654 -0.65)
(-0.0318352 0.0947972 -0.65)
(-0.0314113 0.0949386 -0.65)
(-0.0309867 0.095078 -0.65)
(-0.0305615 0.0952155 -0.65)
(-0.0301357 0.0953511 -0.65)
(-0.0297093 0.0954849 -0.65)
(-0.0292823 0.0956167 -0.65)
(-0.0288547 0.0957466 -0.65)
(-0.0284265 0.0958746 -0.65)
(-0.0279978 0.0960006 -0.65)
(-0.0275685 0.0961248 -0.65)
(-0.0271387 0.096247 -0.65)
(-0.0267083 0.0963674 -0.65)
(-0.0262774 0.0964857 -0.65)
(-0.0258459 0.0966022 -0.65)
(-0.025414 0.0967168 -0.65)
(-0.0249815 0.0968294 -0.65)
(-0.0245485 0.09694 -0.65)